plume COG upload to gs://grace-2-hazard-prod-runs/01KTQRXJKK4ZJGHA0C704AFB1M/plume_concentration_4326.tif failed (No module named 'fsspec'); using local file:// URI
[harness] mf6 binary: /tmp/mf6
[harness] GRACE2_MODFLOW_LOCAL=1
[harness] fixture: /home/nate/Documents/GRACE-2/services/agent/tests/fixtures/case2_news_article.txt (2720 chars)

[harness] === extracted spill parameters ===
  contaminant: trichloroethylene
  contaminant_density_kg_l: 1.46
  location_name: Twin Falls, Idaho
  spill_location_latlon: (42.563, -114.4609)
  scale_value: 12000.0
  scale_unit: gallon
  total_mass_kg: 66320.41445568
  duration_days: 0.25
  duration_days_raw: 0.25
  release_rate_kg_s: 3.0703895581333334
  release_rate_kg_s_raw: 3.0703895581333334
  clamps_applied: []
  extraction_notes: []

[harness] plausibility assertions PASSED (lat/lon in Idaho, rate+duration in clamp band, contaminant=TCE)

[harness] === running composer (real mf6 local solve) ===

[harness] confirmation envelope emitted: tool=run_modflow_job options=['proceed', 'cancel']
[harness]   recommendation: Demo aquifer parameterization (K=0.0001 m/s, porosity=0.3) — NOT site-specific hydrogeology. Confirm to run the MODFLOW groundwater-plume simulation for trichloroethylene near Twin Falls, Idaho.
[harness] user APPROVES (programmatic) -> proceeding to MODFLOW
writing simulation...
  writing simulation name file...
  writing simulation tdis package...
  writing solution package ims_-1...
  writing solution package ims_0...
  writing package gwfgwt.exg...
  writing model gwf_model...
    writing model name file...
    writing package dis...
    writing package ic...
    writing package npf...
    writing package chd_0...
INFORMATION: maxbound in ('', 'chd', 'dimensions') changed to 80 based on size of stress_period_data
    writing package oc...
  writing model gwt_model...
    writing model name file...
    writing package dis...
    writing package ic...
    writing package adv...
    writing package dsp...
    writing package mst...
    writing package src_0...
INFORMATION: maxbound in ('', 'src', 'dimensions') changed to 1 based on size of stress_period_data
    writing package ssm...
    writing package oc...

[harness] === Case2Result.summary ===
{
  "location_name": "Twin Falls, Idaho",
  "contaminant": "trichloroethylene",
  "plume_area_km2": 0.0125,
  "max_concentration_mgl": 2946.320923981195,
  "release_rate_kg_s": 3.0703895581333334,
  "duration_days": 0.25,
  "demo_aquifer_caveat": "Aquifer K=0.0001 m/s, porosity=0.3 are demo defaults, not site-specific hydrogeology."
}

[harness] === plume layer ===
  layer_id: plume-concentration-01KTQRXJKK4ZJGHA0C704AFB1M
  uri: file:///tmp/tmp1r7ayp2b_4326.tif
  max_concentration_mgl: 2946.320923981195
  plume_area_km2: 0.0125

[harness] plume summary NON-ZERO assertions PASSED

[harness] EVIDENCE WRITTEN: extracted_params.json, plume_summary.json
[harness] CASE 2 END-TO-END: PASS
